Circuit: * C:\11myDrive2\11 PROJECTS\cusat\s4\ectLab\bistableMltvbr\bistable.asc

R7: both pins shorted together -- ignoring.
Direct Newton iteration for .op point succeeded.

Date: Mon Jun 21 09:59:33 2021
Total elapsed time: 0.594 seconds.

tnom = 27
temp = 27
method = modified trap
totiter = 129451
traniter = 129440
tranpoints = 50270
accept = 40095
rejected = 10175
matrix size = 15
fillins = 6
solver = Normal
Matrix Compiler1: 1.30 KB object code size  0.5/0.2/[0.1]
Matrix Compiler2: off  [0.2]/0.2/0.2

