Circuit: * C:\11myDrive2\11 PROJECTS\cusat\s4\ectLab\astableMultivibrtr\am1.asc

Direct Newton iteration for .op point succeeded.

Date: Mon Jun 21 09:54:53 2021
Total elapsed time: 0.093 seconds.

tnom = 27
temp = 27
method = modified trap
totiter = 21991
traniter = 21982
tranpoints = 5768
accept = 4424
rejected = 1344
matrix size = 12
fillins = 6
solver = Normal
Matrix Compiler1: 1.17 KB object code size  0.4/0.2/[0.1]
Matrix Compiler2: 1.18 KB object code size  0.2/0.2/[0.1]

