Circuit: * C:\11myDrive2\11 PROJECTS\cusat\s4\ectLab\astableMultivibrtr\Vco-1.asc

Direct Newton iteration for .op point succeeded.

Date: Mon Jun 21 09:23:23 2021
Total elapsed time: 0.232 seconds.

tnom = 27
temp = 27
method = modified trap
totiter = 60964
traniter = 60954
tranpoints = 15230
accept = 11138
rejected = 4092
matrix size = 14
fillins = 6
solver = Normal
Matrix Compiler1: 1.21 KB object code size  0.5/0.2/[0.1]
Matrix Compiler2: 1.27 KB object code size  0.2/0.2/[0.1]

