Circuit: * C:\11myDrive2\11 PROJECTS\cusat\s4\ectLab\monoStableMultivbrtr\ms.asc

Direct Newton iteration for .op point succeeded.

Date: Mon Jun 21 09:57:16 2021
Total elapsed time: 0.499 seconds.

tnom = 27
temp = 27
method = modified trap
totiter = 119124
traniter = 119108
tranpoints = 42456
accept = 32946
rejected = 9510
matrix size = 18
fillins = 6
solver = Normal
Matrix Compiler1: 1.35 KB object code size  0.5/0.2/[0.1]
Matrix Compiler2: 1.58 KB object code size  0.2/0.3/[0.2]

