Circuit: * C:\11myDrive2\11 PROJECTS\cusat\s4\ectLab\WEIN BRIDGE OSCILLATOR\weinBridge.asc

WARNING: Node N002 is floating.

Direct Newton iteration for .op point succeeded.

Date: Wed Jun 09 15:07:17 2021
Total elapsed time: 0.140 seconds.

tnom = 27
temp = 27
method = modified trap
totiter = 16145
traniter = 16139
tranpoints = 6532
accept = 4570
rejected = 1962
matrix size = 17
fillins = 12
solver = Normal
Matrix Compiler1: 1.64 KB object code size  0.7/0.2/[0.2]
Matrix Compiler2: 1.63 KB object code size  0.2/0.3/[0.2]

